Version 4
SHEET 1 928 680
WIRE -576 -208 -864 -208
WIRE -384 -208 -576 -208
WIRE -208 -208 -384 -208
WIRE -96 -208 -208 -208
WIRE 48 -208 -96 -208
WIRE -864 -192 -864 -208
WIRE -576 -176 -576 -208
WIRE -208 -176 -208 -208
WIRE -96 -176 -96 -208
WIRE -384 -144 -384 -208
WIRE 48 -128 48 -208
WIRE 96 -128 48 -128
WIRE 256 -128 160 -128
WIRE 368 -128 320 -128
WIRE 416 -128 368 -128
WIRE 544 -128 496 -128
WIRE 672 -128 544 -128
WIRE 816 -128 672 -128
WIRE 96 -112 96 -128
WIRE 160 -112 160 -128
WIRE 368 -112 368 -128
WIRE 544 -112 544 -128
WIRE 672 -112 672 -128
WIRE 816 -112 816 -128
WIRE -864 -96 -864 -112
WIRE -208 -80 -208 -112
WIRE -96 -80 -96 -96
WIRE -96 -80 -208 -80
WIRE -96 -64 -96 -80
WIRE -768 -16 -832 -16
WIRE -576 -16 -576 -96
WIRE -576 -16 -688 -16
WIRE -528 -16 -576 -16
WIRE -432 -16 -464 -16
WIRE 96 -16 96 -32
WIRE 96 -16 48 -16
WIRE 160 -16 160 -32
WIRE 368 -16 368 -48
WIRE 368 -16 160 -16
WIRE 544 -16 544 -48
WIRE 544 -16 368 -16
WIRE 672 -16 672 -32
WIRE 672 -16 544 -16
WIRE 816 -16 816 -32
WIRE 816 -16 672 -16
WIRE 816 16 816 -16
WIRE -96 32 -96 0
WIRE 48 32 48 -16
WIRE 48 32 -96 32
WIRE -1008 112 -1104 112
WIRE -912 112 -1008 112
WIRE -784 112 -848 112
WIRE -704 112 -784 112
WIRE -128 112 -624 112
WIRE 96 112 -128 112
WIRE -1008 128 -1008 112
WIRE -784 128 -784 112
WIRE 96 128 96 112
WIRE -576 176 -576 -16
WIRE -352 176 -576 176
WIRE -304 176 -352 176
WIRE -208 176 -224 176
WIRE -128 176 -128 112
WIRE -128 176 -144 176
WIRE -352 192 -352 176
WIRE -1104 208 -1104 112
WIRE -1008 224 -1008 192
WIRE -784 224 -784 192
WIRE 96 224 96 208
WIRE -576 240 -576 176
WIRE -96 256 -96 32
WIRE -352 272 -352 256
WIRE -1104 304 -1104 288
WIRE -736 304 -1104 304
WIRE -288 336 -416 336
WIRE -144 336 -208 336
WIRE -1104 368 -1104 304
WIRE -976 368 -1104 368
WIRE -848 368 -896 368
WIRE -736 368 -784 368
WIRE -1104 384 -1104 368
WIRE -880 432 -992 432
WIRE -736 432 -880 432
WIRE -992 448 -992 432
WIRE -880 448 -880 432
WIRE -384 464 -384 -64
WIRE -384 464 -416 464
WIRE -272 464 -384 464
WIRE -96 464 -96 352
WIRE -96 464 -192 464
WIRE -1104 480 -1104 464
WIRE -384 480 -384 464
WIRE -96 480 -96 464
WIRE -736 496 -784 496
WIRE -880 528 -880 512
WIRE -992 560 -992 528
WIRE -784 560 -784 496
WIRE -784 560 -992 560
WIRE -384 560 -384 544
WIRE -992 576 -992 560
WIRE -96 576 -96 560
WIRE -576 608 -576 560
WIRE -992 656 -992 640
FLAG -96 576 0
FLAG -992 656 0
FLAG -880 528 0
FLAG -1104 480 0
FLAG -576 608 0
FLAG -1008 224 0
FLAG -784 224 0
FLAG -352 272 0
FLAG 96 224 0
FLAG -864 -96 0
FLAG -432 -16 0
FLAG 816 -128 OUT
FLAG 816 16 0
FLAG -864 -208 IN
FLAG -384 560 0
FLAG -832 -16 0
SYMBOL RES -112 464 R0
SYMATTR InstName R1
SYMATTR Value .67
SYMBOL cap -1008 576 R0
SYMATTR InstName C1
SYMATTR Value 220p
SYMBOL cap -896 448 R0
SYMATTR InstName C2
SYMATTR Value .1µ
SYMBOL cap -784 352 R90
WINDOW 0 0 32 VBottom 2
WINDOW 3 32 32 VTop 2
SYMATTR InstName C3
SYMATTR Value .01µ
SYMBOL res -880 352 R90
WINDOW 0 0 56 VBottom 2
WINDOW 3 32 56 VTop 2
SYMATTR InstName R2
SYMATTR Value 200K
SYMBOL res -1008 432 R0
SYMATTR InstName R3
SYMATTR Value 12K
SYMBOL res -1120 368 R0
SYMATTR InstName R4
SYMATTR Value 20K
SYMBOL res -176 448 R90
WINDOW 0 0 56 VBottom 2
WINDOW 3 32 56 VTop 2
SYMATTR InstName R5
SYMATTR Value 1K
SYMBOL NMOS -144 256 R0
SYMATTR InstName Q1
SYMATTR Value BSC42DN25NS3
SYMBOL res -192 320 R90
WINDOW 0 0 56 VBottom 2
WINDOW 3 32 56 VTop 2
SYMATTR InstName R6
SYMATTR Value 10
SYMBOL res -1120 192 R0
SYMATTR InstName R7
SYMATTR Value 125K
SYMBOL cap -1024 128 R0
SYMATTR InstName C4
SYMATTR Value .0022µ
SYMBOL cap -800 128 R0
SYMATTR InstName C5
SYMATTR Value 100p
SYMBOL schottky -848 96 R90
WINDOW 0 0 32 VBottom 2
WINDOW 3 32 32 VTop 2
SYMATTR InstName D1
SYMATTR Value BAT54
SYMBOL cap -368 192 R0
SYMATTR InstName C6
SYMATTR Value 22µ
SYMBOL res -208 160 R90
WINDOW 0 0 56 VBottom 2
WINDOW 3 32 56 VTop 2
SYMATTR InstName R8
SYMATTR Value 39
SYMBOL schottky -144 160 R90
WINDOW 0 0 32 VBottom 2
WINDOW 3 32 32 VTop 2
SYMATTR InstName D2
SYMATTR Value BAT54
SYMBOL res -400 -160 R0
SYMATTR InstName R9
SYMATTR Value 1.32Meg
SYMBOL res -112 -192 R0
SYMATTR InstName R10
SYMATTR Value 660K
SYMBOL cap -224 -176 R0
SYMATTR InstName C7
SYMATTR Value 470p
SYMBOL ind2 176 -128 M0
WINDOW 0 1 32 Right 2
WINDOW 3 -2 69 Right 2
SYMATTR InstName L1
SYMATTR Value 20µ
SYMATTR SpiceLine Rser=.05
SYMBOL ind2 80 112 R0
WINDOW 0 -3 43 Right 2
WINDOW 3 -4 70 Right 2
SYMATTR InstName L2
SYMATTR Value 16µ
SYMATTR Value2 Rser=.1
SYMBOL ind2 80 -16 M180
WINDOW 0 -2 79 Right 2
WINDOW 3 -2 44 Right 2
SYMATTR InstName L3
SYMATTR Value 100µ
SYMATTR SpiceLine Rser=.05
SYMBOL schottky 256 -144 M90
WINDOW 0 0 32 VBottom 2
WINDOW 3 32 32 VTop 2
SYMATTR InstName D3
SYMATTR Value MBRS340
SYMBOL ind 400 -112 R270
WINDOW 0 32 56 VTop 2
WINDOW 3 5 56 VBottom 2
SYMATTR InstName L4
SYMATTR Value 1µ
SYMBOL polcap 528 -112 R0
SYMATTR InstName C8
SYMATTR Value 3.3µ
SYMBOL res 656 -128 R0
SYMATTR InstName R11
SYMATTR Value 750
SYMBOL VOLTAGE -864 -208 R0
SYMATTR InstName V1
SYMATTR Value 200
SYMBOL zener -464 0 M270
WINDOW 0 36 32 VTop 2
WINDOW 3 -4 32 VBottom 2
SYMATTR InstName D4
SYMATTR Value BZX84C15L
SYMBOL diode -112 0 M180
WINDOW 0 28 62 Left 2
WINDOW 3 24 0 Left 2
SYMATTR InstName D5
SYMATTR Value MURS320
SYMBOL res -608 96 R90
WINDOW 0 0 56 VBottom 2
WINDOW 3 32 56 VTop 2
SYMATTR InstName R12
SYMATTR Value 510
SYMBOL res -592 -192 R0
SYMATTR InstName R13
SYMATTR Value 400K
SYMBOL PowerProducts\\LT1243 -576 400 R0
SYMATTR InstName U1
SYMBOL cap -400 480 R0
SYMATTR InstName C9
SYMATTR Value 25p
SYMBOL current -768 -16 R270
WINDOW 0 32 40 VTop 2
WINDOW 3 -32 40 VBottom 2
SYMATTR InstName I1
SYMATTR Value pwl(0 0 50u 7 100u 0)
SYMBOL polcap 352 -112 R0
SYMATTR InstName C10
SYMATTR Value 10µ
SYMATTR SpiceLine Rser=.1
SYMBOL res 800 -128 R0
SYMATTR InstName Rload1
SYMATTR Value 25
TEXT 128 472 Left 2 !.tran 1m startup
TEXT 56 -152 Left 2 !K1 L1 L2 L3 1
LINE Normal 128 192 128 -112 2
